Version 4
SHEET 1 1280 760
WIRE 864 -80 448 -80
WIRE 1008 -80 864 -80
WIRE 224 32 176 32
WIRE 368 32 288 32
WIRE 1008 80 1008 0
WIRE -16 160 -64 160
WIRE 80 160 48 160
WIRE 176 160 176 32
WIRE 208 160 176 160
WIRE 368 160 368 32
WIRE 368 160 288 160
WIRE 656 192 592 192
WIRE 928 192 736 192
WIRE 448 240 448 -80
WIRE 448 240 256 240
WIRE 256 272 256 240
WIRE 864 272 864 -80
WIRE 864 272 704 272
WIRE -64 288 -64 160
WIRE -64 288 -208 288
WIRE -32 288 -64 288
WIRE 80 288 80 160
WIRE 80 288 48 288
WIRE 176 288 176 160
WIRE 176 288 80 288
WIRE 224 288 176 288
WIRE 704 288 704 272
WIRE 368 304 368 160
WIRE 368 304 288 304
WIRE 464 304 368 304
WIRE 592 304 592 192
WIRE 592 304 544 304
WIRE 672 304 592 304
WIRE 224 320 176 320
WIRE 928 320 928 192
WIRE 928 320 736 320
WIRE 1168 320 928 320
WIRE -208 336 -208 288
WIRE 672 336 592 336
WIRE 704 352 688 352
WIRE 256 432 256 336
WIRE 256 432 224 432
WIRE 688 432 688 352
WIRE 688 432 256 432
WIRE -208 480 -208 416
WIRE 176 480 176 320
WIRE 176 480 -208 480
WIRE 304 480 176 480
WIRE 592 480 592 336
WIRE 592 480 304 480
WIRE 704 480 592 480
WIRE 176 544 176 480
WIRE 224 704 224 432
WIRE 304 704 304 480
FLAG 176 544 0
FLAG 1008 80 0
FLAG 1168 320 Vout
IOPIN 1168 320 Out
SYMBOL res 64 272 R90
WINDOW 0 0 56 VBottom 2
WINDOW 3 32 56 VTop 2
SYMATTR InstName R1
SYMATTR Value 27000
SYMBOL res 304 144 R90
WINDOW 0 0 56 VBottom 2
WINDOW 3 32 56 VTop 2
SYMATTR InstName R2
SYMATTR Value 1800
SYMBOL res 560 288 R90
WINDOW 0 0 56 VBottom 2
WINDOW 3 32 56 VTop 2
SYMATTR InstName R3
SYMATTR Value 1000
SYMBOL res 752 176 R90
WINDOW 0 0 56 VBottom 2
WINDOW 3 32 56 VTop 2
SYMATTR InstName R4
SYMATTR Value 2200
SYMBOL cap 48 144 R90
WINDOW 0 0 32 VBottom 2
WINDOW 3 32 32 VTop 2
SYMATTR InstName C1
SYMATTR Value 100µ
SYMBOL cap 288 16 R90
WINDOW 0 0 32 VBottom 2
WINDOW 3 32 32 VTop 2
SYMATTR InstName C2
SYMATTR Value 47µ
SYMBOL voltage 1008 -96 R0
WINDOW 123 0 0 Left 0
WINDOW 39 0 0 Left 0
SYMATTR InstName V1
SYMATTR Value 5
SYMBOL voltage -208 320 R0
WINDOW 123 0 0 Left 0
WINDOW 39 0 0 Left 0
SYMATTR InstName V2
SYMATTR Value PWL(1 0 1.0001 5)
SYMBOL OpAmps\\AD713 256 240 R0
SYMATTR InstName U1
SYMBOL OpAmps\\AD713 704 256 R0
SYMATTR InstName U2
SYMBOL voltage 320 704 R90
WINDOW 123 0 0 Left 0
WINDOW 39 0 0 Left 0
SYMATTR InstName V3
SYMATTR Value 5
TEXT -242 568 Left 2 !.tran 0 2 0
