Version 4
SHEET 1 2724 888
WIRE 448 -80 -528 -80
WIRE 864 -80 448 -80
WIRE 1008 -80 864 -80
WIRE 1104 -80 1008 -80
WIRE 1536 -80 1104 -80
WIRE 224 32 176 32
WIRE 368 32 288 32
WIRE 1008 80 1008 0
WIRE -16 160 -64 160
WIRE 80 160 48 160
WIRE 176 160 176 32
WIRE 208 160 176 160
WIRE 368 160 368 32
WIRE 368 160 288 160
WIRE 656 192 592 192
WIRE 928 192 736 192
WIRE 1504 192 1440 192
WIRE 1648 192 1584 192
WIRE -560 240 -624 240
WIRE -416 240 -480 240
WIRE 448 240 448 -80
WIRE 448 240 256 240
WIRE 256 272 256 240
WIRE 864 272 864 -80
WIRE 864 272 704 272
WIRE -64 288 -64 160
WIRE -64 288 -128 288
WIRE -32 288 -64 288
WIRE 80 288 80 160
WIRE 80 288 48 288
WIRE 176 288 176 160
WIRE 176 288 80 288
WIRE 224 288 176 288
WIRE 704 288 704 272
WIRE 368 304 368 160
WIRE 368 304 288 304
WIRE 464 304 368 304
WIRE 592 304 592 192
WIRE 592 304 544 304
WIRE 672 304 592 304
WIRE 2448 304 2128 304
WIRE 224 320 176 320
WIRE 928 320 928 192
WIRE 928 320 736 320
WIRE 976 320 928 320
WIRE 1280 320 1200 320
WIRE 1440 320 1440 192
WIRE 1440 320 1360 320
WIRE 1536 320 1536 -80
WIRE 672 336 592 336
WIRE 1440 336 1440 320
WIRE 1504 336 1440 336
WIRE 704 352 688 352
WIRE 1648 352 1648 192
WIRE 1648 352 1568 352
WIRE 1840 352 1648 352
WIRE 2448 352 2448 304
WIRE 2720 352 2448 352
WIRE -784 368 -848 368
WIRE -624 368 -624 240
WIRE -624 368 -704 368
WIRE -528 368 -528 -80
WIRE 1504 368 1472 368
WIRE -624 384 -624 368
WIRE -560 384 -624 384
WIRE 1200 384 1200 320
WIRE -416 400 -416 240
WIRE -416 400 -496 400
WIRE -128 400 -128 288
WIRE -128 400 -416 400
WIRE -592 416 -624 416
WIRE -560 416 -592 416
WIRE 2448 416 2448 352
WIRE 32 432 -528 432
WIRE 256 432 256 336
WIRE 256 432 224 432
WIRE 688 432 688 352
WIRE 688 432 256 432
WIRE 1104 432 1104 -80
WIRE 2128 432 2128 304
WIRE 1472 448 1472 368
WIRE 1472 448 1424 448
WIRE 176 480 176 320
WIRE 304 480 176 480
WIRE 592 480 592 336
WIRE 592 480 304 480
WIRE 704 480 592 480
WIRE -592 496 -592 416
WIRE -560 496 -592 496
WIRE -1424 512 -1472 512
WIRE -1296 512 -1424 512
WIRE -624 512 -624 416
WIRE -624 512 -1216 512
WIRE 1104 528 1104 512
WIRE 1344 528 1104 528
WIRE 1472 528 1472 448
WIRE 1472 528 1424 528
WIRE 176 544 176 480
WIRE 1104 544 1104 528
WIRE -1472 560 -1472 512
WIRE -560 608 -560 496
WIRE 32 624 32 432
WIRE 144 624 32 624
WIRE 224 624 224 432
WIRE 224 624 144 624
WIRE -1472 704 -1472 640
WIRE 224 704 224 624
WIRE 304 704 304 480
WIRE -560 720 -560 688
WIRE 704 720 704 480
WIRE 1104 720 1104 624
WIRE 1104 720 704 720
WIRE 144 784 144 624
WIRE 1536 784 1536 384
WIRE 1536 784 144 784
WIRE -848 832 -848 368
WIRE 2720 832 2720 352
WIRE 2720 832 -848 832
FLAG 176 544 0
FLAG 1008 80 0
FLAG 976 320 Cout
IOPIN 976 320 Out
FLAG -1472 704 0
FLAG -560 720 0
FLAG -1424 512 Vin
IOPIN -1424 512 In
FLAG 2128 512 0
FLAG 2448 496 0
FLAG 2448 304 Out
IOPIN 2448 304 Out
FLAG -128 400 Error
IOPIN -128 400 Out
FLAG 1200 384 0
FLAG 1344 448 Cout
IOPIN 1344 448 In
FLAG 1840 352 Cout1
IOPIN 1840 352 Out
SYMBOL res 64 272 R90
WINDOW 0 0 56 VBottom 2
WINDOW 3 32 56 VTop 2
SYMATTR InstName R1
SYMATTR Value 27000
SYMBOL res 304 144 R90
WINDOW 0 0 56 VBottom 2
WINDOW 3 32 56 VTop 2
SYMATTR InstName R2
SYMATTR Value 1800
SYMBOL res 560 288 R90
WINDOW 0 0 56 VBottom 2
WINDOW 3 32 56 VTop 2
SYMATTR InstName R3
SYMATTR Value 1000
SYMBOL res 752 176 R90
WINDOW 0 0 56 VBottom 2
WINDOW 3 32 56 VTop 2
SYMATTR InstName R4
SYMATTR Value 2200
SYMBOL cap 48 144 R90
WINDOW 0 0 32 VBottom 2
WINDOW 3 32 32 VTop 2
SYMATTR InstName C1
SYMATTR Value 100µ
SYMBOL cap 288 16 R90
WINDOW 0 0 32 VBottom 2
WINDOW 3 32 32 VTop 2
SYMATTR InstName C2
SYMATTR Value 47µ
SYMBOL voltage 1008 -96 R0
WINDOW 123 0 0 Left 0
WINDOW 39 0 0 Left 0
SYMATTR InstName V1
SYMATTR Value 5
SYMBOL voltage -1472 544 R0
WINDOW 123 0 0 Left 0
WINDOW 39 0 0 Left 0
SYMATTR InstName V2
SYMATTR Value PWL(1 0 1.0001 3)
SYMBOL OpAmps\\AD713 256 240 R0
SYMATTR InstName U1
SYMBOL OpAmps\\AD713 704 256 R0
SYMATTR InstName U2
SYMBOL voltage 320 704 R90
WINDOW 123 0 0 Left 0
WINDOW 39 0 0 Left 0
SYMATTR InstName V3
SYMATTR Value 5
SYMBOL OpAmps\\AD713 -528 336 R0
SYMATTR InstName U3
SYMBOL res -688 352 R90
WINDOW 0 0 56 VBottom 2
WINDOW 3 32 56 VTop 2
SYMATTR InstName R5
SYMATTR Value 10000
SYMBOL res -1200 496 R90
WINDOW 0 0 56 VBottom 2
WINDOW 3 32 56 VTop 2
SYMATTR InstName R6
SYMATTR Value 10000
SYMBOL res -464 224 R90
WINDOW 0 0 56 VBottom 2
WINDOW 3 32 56 VTop 2
SYMATTR InstName R8
SYMATTR Value 10000
SYMBOL res -576 592 R0
SYMATTR InstName R9
SYMATTR Value 10000
SYMBOL bv 2128 416 R0
SYMATTR InstName B1
SYMATTR Value V=idt(V(Cout1)-2.5)
SYMBOL res 2432 400 R0
SYMATTR InstName R10
SYMATTR Value 1k
SYMBOL OpAmps\\AD713 1536 288 R0
SYMATTR InstName U4
SYMBOL res 1376 304 R90
WINDOW 0 0 56 VBottom 2
WINDOW 3 32 56 VTop 2
SYMATTR InstName R7
SYMATTR Value 1000
SYMBOL res 1600 176 R90
WINDOW 0 0 56 VBottom 2
WINDOW 3 32 56 VTop 2
SYMATTR InstName R11
SYMATTR Value 1000
SYMBOL res 1440 512 R90
WINDOW 0 0 56 VBottom 2
WINDOW 3 32 56 VTop 2
SYMATTR InstName R12
SYMATTR Value 1000
SYMBOL res 1440 432 R90
WINDOW 0 0 56 VBottom 2
WINDOW 3 32 56 VTop 2
SYMATTR InstName R13
SYMATTR Value 1000
SYMBOL res 1088 416 R0
SYMATTR InstName R14
SYMATTR Value 1000
SYMBOL res 1088 528 R0
SYMATTR InstName R15
SYMATTR Value 2200
TEXT -240 568 Left 2 !.tran 0 120 0
TEXT 320 872 Left 2 ;negative feedback
TEXT -1600 504 Left 2 ;reference
TEXT 2360 280 Left 2 ;output
TEXT 2024 272 Left 2 ;approximation of plant
TEXT 1136 648 Left 2 ;potentiometer
